OPT_V9/start_from_1_gen/powerflow_results_t6.txt
Pandapower Network Debug Info
==================================================

BUS:
       vm_pu  va_degree      p_mw    q_mvar
0   0.992899   0.136487  0.000963  0.000938
1   0.988219   0.242729  0.001338  0.002316
2   0.983945   0.338817  0.002016  0.003375
3   0.989298   0.205648  0.002457  0.003691
4   0.989213   0.152106  0.003552  0.004478
5   0.992956   0.116703  0.002906  0.004968
6   0.991240   0.109706  0.001282  0.000862
7   0.997845   0.024625  0.001498  0.001754
8   0.997879   0.031428  0.001836  0.002713
9   0.999879   0.000570  0.010775  0.009808
10  0.999864   0.000587  0.012215  0.007620
11  0.999853   0.000664  0.013402  0.013196
12  0.999780   0.001881  0.009062  0.006527
13  0.999762   0.002068  0.011548  0.009945
14  0.999751   0.002200  0.011966  0.014022
15  0.999925   0.000470  0.000000  0.000000
16  0.999925   0.000477  0.000000  0.000000
17  0.999785   0.001892  0.000000  0.000000
18  0.999785   0.001900  0.000000  0.000000
19  1.000000   0.000000 -0.043320 -0.046049
20  1.000000   0.000006  0.000000  0.000000
21  1.000000   0.000000 -0.043784 -0.050357
22  1.000000   0.000007  0.000000  0.000000
--------------------------------------------------

LINE:
    p_from_mw  q_from_mvar   p_to_mw  q_to_mvar         pl_mw       ql_mvar  i_from_ka   i_to_ka      i_ka  vm_from_pu  va_from_degree  vm_to_pu  va_to_degree  loading_percent
0    0.043310     0.042049 -0.043307  -0.042046  3.564233e-06  2.779091e-06   0.002323  0.002323  0.002323    1.000000        0.000006  0.999925      0.000470         1.010193
1    0.043774     0.046357 -0.043763  -0.046348  1.093465e-05  8.525929e-06   0.002454  0.002454  0.002454    1.000000        0.000007  0.999785      0.001892         1.066983
2    0.036395     0.030626 -0.036393  -0.030625  1.749870e-06  1.364403e-06   0.001831  0.001831  0.001831    0.999925        0.000470  0.999879      0.000570         0.796075
3    0.009062     0.006527 -0.009062  -0.006527  4.315334e-08  3.364737e-08   0.000430  0.000430  0.000430    0.999785        0.001892  0.999780      0.001881         0.186939
4    0.023515     0.023968 -0.023515  -0.023968  6.167451e-07  4.808863e-07   0.001293  0.001293  0.001293    0.999785        0.001892  0.999762      0.002068         0.562033
5    0.006902     0.010420 -0.006829  -0.010363  7.307541e-05  5.697810e-05   0.018041  0.018041  0.018041    0.999925        0.000477  0.992899      0.136487         7.844115
6    0.004231     0.005863 -0.004191  -0.005832  4.057783e-05  3.163920e-05   0.010439  0.010439  0.010439    0.999785        0.001900  0.992956      0.116703         4.538541
7    0.001502     0.001757 -0.001498  -0.001754  3.609424e-06  2.814328e-06   0.003336  0.003336  0.003336    0.999785        0.001900  0.997845      0.024625         1.450519
8    0.005442     0.007234 -0.005428  -0.007223  1.409602e-05  1.099090e-05   0.013069  0.013069  0.013069    0.999785        0.001900  0.997879      0.031428         5.682173
9   -0.025618    -0.020817  0.025618   0.020817  3.769084e-07  2.938817e-07   0.001271  0.001271  0.001271    0.999864        0.000587  0.999879      0.000570         0.552474
10  -0.013402    -0.013196  0.013402   0.013196  1.730642e-07  1.349410e-07   0.000724  0.000724  0.000724    0.999853        0.000664  0.999864      0.000587         0.314804
11  -0.011966    -0.014022  0.011967   0.014022  1.662759e-07  1.296481e-07   0.000710  0.000710  0.000710    0.999751        0.002200  0.999762      0.002068         0.308568
12  -0.003369    -0.005702  0.003396   0.005723  2.657550e-05  2.072136e-05   0.009674  0.009674  0.009674    0.988219        0.242729  0.992899      0.136487         4.205998
13  -0.002457    -0.003691  0.002470   0.003702  1.341312e-05  1.045843e-05   0.006469  0.006469  0.006469    0.989298        0.205648  0.992899      0.136487         2.812747
14  -0.002016    -0.003375  0.002031   0.003386  1.444079e-05  1.125972e-05   0.005767  0.005767  0.005767    0.983945        0.338817  0.988219      0.242729         2.507380
15   0.003592     0.004510 -0.003552  -0.004478  4.061948e-05  3.167167e-05   0.008340  0.008340  0.008340    0.997879        0.031428  0.989213      0.152106         3.625913
16  -0.001282    -0.000862  0.001284   0.000863  2.114486e-06  1.648699e-06   0.002249  0.002249  0.002249    0.991240        0.109706  0.992956      0.116703         0.978001
--------------------------------------------------

TRAFO:
    p_hv_mw  q_hv_mvar   p_lv_mw  q_lv_mvar    pl_mw  ql_mvar   i_hv_ka   i_lv_ka  vm_hv_pu  va_hv_degree  vm_lv_pu  va_lv_degree  loading_percent
0  0.006912   0.011420 -0.006902  -0.010420  0.00001    0.001  0.000514  0.018041  0.999925      0.000470  0.999925      0.000477         0.133497
1  0.011185   0.015853 -0.011175  -0.014854  0.00001    0.001  0.000747  0.026835  0.999785      0.001892  0.999785      0.001900         0.194060
2  0.043320   0.046049 -0.043310  -0.042049  0.00001    0.004  0.000521  0.002323  1.000000      0.000000  1.000000      0.000006         0.158058
3  0.043784   0.050357 -0.043774  -0.046357  0.00001    0.004  0.000550  0.002454  1.000000      0.000000  1.000000      0.000007         0.166824
--------------------------------------------------
